/*--------------------------------*- C++ -*----------------------------------*\
  =========                 |
  \      /  F ield         | OpenFOAM: The Open Source CFD Toolbox
   \    /   O peration     | Website:  https://openfoam.org
    \  /    A nd           | Version:  6
     \/     M anipulation  |
\*---------------------------------------------------------------------------*/
FoamFile
{
    version     2.0;
    format      ascii;
    class       dictionary;
    location    "constant";
    object      inflowProperties;
}
// * * * * * * * * * * * * * * * * * * * * * * * * * * * * * * * * * * * * * //

// mean velocity
UDict
{
    referenceValue          1;
    profile                 uniform;
}

// turbulent intensity (symmTensorField)
IDict
{
    referenceValue         (0.05  0  0  0.05  0  0.05);
    profile                 uniform;
}

// turbulence length scale profile for u component
LuxDict
{
    referenceValue          1;
    profile                 uniform;
}

// turbulence length scale profile for v component
LvxDict
{
    referenceValue          1;
    profile                 uniform;
}

// turbulence length scale profile for w component
LwxDict
{
    referenceValue          1;
    profile                 uniform;
}

LuyToLuxRatio              1;
LuzToLuxRatio              1;
LvyToLvxRatio              1;
LvzToLvxRatio              1;
LwyToLwxRatio              1;
LwzToLwxRatio              1;


// ************************************************************************* //
